-------------------------------------------------------
          Amber 20 PMEMD                              2020
          -------------------------------------------------------

  [-O]verwriting output

File Assignments:

 Here is the input file:

 &cntrl
  imin = 0,
  nstlim = 1000000,
  dt = 0.001,
  irest = 1,
  ntx = 5,
  ig = -1,
  temp0 = 298.0,
  ntc = 2,
  ntf = 2,
  tol = 0.00001,
  ntwx = 10000,
  ntwe = 0,
  ntwr = 1000,
  ntpr = 1000,
  cut = 8.0,
  iwrap = 0,
  ntt =3,
  gamma_ln=1.0,
  ntb = 2,
  ntp = 1,
  barostat = 2,
  nscm = 0,
  ntr=1,
  restraintmask=':1-788',
  restraint_wt=100.
  ioutfm=1,
  ntxo=2,
 /

Note: ig = -1. Setting random seed to   398174 based on wallclock time in
      microseconds.

--------------------------------------------------------------------------------
   1.  RESOURCE   USE:
--------------------------------------------------------------------------------

 getting box info from netcdf restart file
 NATOM  =  129112 NTYPES =      20 NBONH =  122455 MBONA  =    6524
 NTHETH =   14162 MTHETA =    8841 NPHIH =   27911 MPHIA  =   21881
 NHPARM =       0 NPARM  =       0 NNB   =  224841 NRES   =   39809
 NBONA  =    6524 NTHETA =    8841 NPHIA =   21881 NUMBND =      56
 NUMANG =     115 NPTRA  =      53 NATYP =      42 NPHB   =       0
 IFBOX  =       2 NMXRS  =      62 IFCAP =       0 NEXTRA =       0
 NCOPY  =       0

     BOX TYPE: TRUNCATED OCTAHEDRON

--------------------------------------------------------------------------------
   2.  CONTROL  DATA  FOR  THE  RUN
--------------------------------------------------------------------------------

default_name

General flags:
     imin    =       0, nmropt  =       0

Nature and format of input:
     ntx     =       5, irest   =       1, ntrx    =       1

Nature and format of output:
     ntxo    =       2, ntpr    =    1000, ntrx    =       1, ntwr    =    1000
     iwrap   =       0, ntwx    =   10000, ntwv    =       0, ntwe    =       0
     ioutfm  =       1, ntwprt  =       0, idecomp =       0, rbornstat=      0

Potential function:
     ntf     =       2, ntb     =       2, igb     =       0, nsnb    =      25
     ipol    =       0, gbsa    =       0, iesp    =       0
     dielc   =   1.00000, cut     =   8.00000, intdiel =   1.00000

Frozen or restrained atoms:
     ibelly  =       0, ntr     =       1
     restraint_wt = 100.00000

Molecular dynamics:
     nstlim  =   1000000, nscm    =         0, nrespa  =         1
     t       =   0.00000, dt      =   0.00100, vlimit  =  -1.00000

Langevin dynamics temperature regulation:
     ig      =  398174
     temp0   = 298.00000, tempi   =   0.00000, gamma_ln=   1.00000

Pressure regulation:
     ntp     =       1
     pres0   =   1.00000, comp    =  44.60000, taup    =   1.00000
     Monte-Carlo Barostat:
     mcbarint  =     100

SHAKE:
     ntc     =       2, jfastw  =       0
     tol     =   0.00001

Ewald parameters:
     verbose =       0, ew_type =       0, nbflag  =       1, use_pme =       1
     vdwmeth =       1, eedmeth =       1, netfrc  =       1
     Box X =  122.726   Box Y =  122.726   Box Z =  122.726
     Alpha =  109.471   Beta  =  109.471   Gamma =  109.471
     NFFT1 =  128       NFFT2 =  128       NFFT3 =  128
     Cutoff=    8.000   Tol   =0.100E-04
     Ewald Coefficient =  0.34864
     Interpolation order =    4

    LOADING THE CONSTRAINED ATOMS AS GROUPS

   5.  REFERENCE ATOM COORDINATES

  default_name
     Mask :1-788; matches 12609 atoms

--------------------------------------------------------------------------------
   3.  ATOMIC COORDINATES AND VELOCITIES
--------------------------------------------------------------------------------

default_name
 begin time read from input coords =   994.000 ps

 Number of triangulated 3-point waters found:    38741

     Sum of charges from parm topology file =   0.00299762
     Forcing neutrality...

--------------------------------------------------------------------------------
   4.  RESULTS
 NSTEP =     1000   TIME(PS) =     995.000  TEMP(K) =   292.67  PRESS =     0.0
 Etot   =   -334631.1878  EKtot   =     77026.4844  EPtot      =   -411657.6722
 BOND   =      1686.5370  ANGLE   =      4538.1288  DIHED      =      8946.7868
 1-4 NB =      3890.1443  1-4 EEL =     32796.7017  VDWAALS    =     50781.4599
 EELEC  =   -519744.5557  EHBOND  =         0.0000  RESTRAINT  =      5447.1251
 EAMBER (non-restraint)  =   -417104.7973
 EKCMT  =         0.0000  VIRIAL  =         0.0000  VOLUME     =   1417476.8778
                                                    Density    =         0.9331
 ------------------------------------------------------------------------------

      A V E R A G E S   O V E R    1000 S T E P S

 NSTEP =  1000000   TIME(PS) =    1994.000  TEMP(K) =   298.01  PRESS =     0.0
 Etot   =   -334813.5806  EKtot   =     78431.5040  EPtot      =   -413245.0846
 BOND   =      1816.3946  ANGLE   =      4804.8738  DIHED      =      8995.8892
 1-4 NB =      3944.5589  1-4 EEL =     32811.1974  VDWAALS    =     51178.3313
 EELEC  =   -522953.6518  EHBOND  =         0.0000  RESTRAINT  =      6157.3219
 EAMBER (non-restraint)  =   -419402.4065
 EKCMT  =         0.0000  VIRIAL  =         0.0000  VOLUME     =   1305401.7747
                                                    Density    =         1.0134
 ------------------------------------------------------------------------------

      R M S  F L U C T U A T I O N S

 NSTEP =  1000000   TIME(PS) =    1994.000  TEMP(K) =     0.85  PRESS =     0.0
 Etot   =       480.5378  EKtot   =       222.6907  EPtot      =       422.3461
 BOND   =        31.0100  ANGLE   =        39.8221  DIHED      =        18.3526
 1-4 NB =        13.6211  1-4 EEL =        28.2603  VDWAALS    =       312.0691
 EELEC  =       594.6412  EHBOND  =         0.0000  RESTRAINT  =        61.4753
 EAMBER (non-restraint)  =       360.8708
 EKCMT  =         0.0000  VIRIAL  =         0.0000  VOLUME     =     13367.0857
                                                    Density    =         0.0098
 ------------------------------------------------------------------------------
