-------------------------------------------------------
          Amber 20 PMEMD                              2020
          -------------------------------------------------------

  [-O]verwriting output

File Assignments:

 Here is the input file:

 &cntrl
  imin = 0,
  nstlim = 1000000,
  dt = 0.001,
  irest = 1,
  ntx = 5,
  ig = -1,
  temp0 = 298.0,
  ntc = 2,
  ntf = 2,
  tol = 0.00001,
  ntwx = 10000,
  ntwe = 0,
  ntwr = 1000,
  ntpr = 1000,
  cut = 8.0,
  iwrap = 0,
  ntt =3,
  gamma_ln=1.0,
  ntb = 2,
  ntp = 1,
  barostat = 2,
  nscm = 0,
  ntr=1,
  restraintmask=':1-788',
  restraint_wt=10.
  ioutfm=1,
  ntxo=2,
 /

Note: ig = -1. Setting random seed to   597990 based on wallclock time in
      microseconds.

--------------------------------------------------------------------------------
   1.  RESOURCE   USE:
--------------------------------------------------------------------------------

 getting box info from netcdf restart file
 NATOM  =  129112 NTYPES =      20 NBONH =  122455 MBONA  =    6524
 NTHETH =   14162 MTHETA =    8841 NPHIH =   27911 MPHIA  =   21881
 NHPARM =       0 NPARM  =       0 NNB   =  224841 NRES   =   39809
 NBONA  =    6524 NTHETA =    8841 NPHIA =   21881 NUMBND =      56
 NUMANG =     115 NPTRA  =      53 NATYP =      42 NPHB   =       0
 IFBOX  =       2 NMXRS  =      62 IFCAP =       0 NEXTRA =       0
 NCOPY  =       0

     BOX TYPE: TRUNCATED OCTAHEDRON

--------------------------------------------------------------------------------
   2.  CONTROL  DATA  FOR  THE  RUN
--------------------------------------------------------------------------------

default_name

General flags:
     imin    =       0, nmropt  =       0

Nature and format of input:
     ntx     =       5, irest   =       1, ntrx    =       1

Nature and format of output:
     ntxo    =       2, ntpr    =    1000, ntrx    =       1, ntwr    =    1000
     iwrap   =       0, ntwx    =   10000, ntwv    =       0, ntwe    =       0
     ioutfm  =       1, ntwprt  =       0, idecomp =       0, rbornstat=      0

Potential function:
     ntf     =       2, ntb     =       2, igb     =       0, nsnb    =      25
     ipol    =       0, gbsa    =       0, iesp    =       0
     dielc   =   1.00000, cut     =   8.00000, intdiel =   1.00000

Frozen or restrained atoms:
     ibelly  =       0, ntr     =       1
     restraint_wt =  10.00000

Molecular dynamics:
     nstlim  =   1000000, nscm    =         0, nrespa  =         1
     t       =   0.00000, dt      =   0.00100, vlimit  =  -1.00000

Langevin dynamics temperature regulation:
     ig      =  597990
     temp0   = 298.00000, tempi   =   0.00000, gamma_ln=   1.00000

Pressure regulation:
     ntp     =       1
     pres0   =   1.00000, comp    =  44.60000, taup    =   1.00000
     Monte-Carlo Barostat:
     mcbarint  =     100

SHAKE:
     ntc     =       2, jfastw  =       0
     tol     =   0.00001

Ewald parameters:
     verbose =       0, ew_type =       0, nbflag  =       1, use_pme =       1
     vdwmeth =       1, eedmeth =       1, netfrc  =       1
     Box X =  119.147   Box Y =  119.147   Box Z =  119.147
     Alpha =  109.471   Beta  =  109.471   Gamma =  109.471
     NFFT1 =  128       NFFT2 =  128       NFFT3 =  128
     Cutoff=    8.000   Tol   =0.100E-04
     Ewald Coefficient =  0.34864
     Interpolation order =    4

    LOADING THE CONSTRAINED ATOMS AS GROUPS

   5.  REFERENCE ATOM COORDINATES

  default_name
     Mask :1-788; matches 12609 atoms

--------------------------------------------------------------------------------
   3.  ATOMIC COORDINATES AND VELOCITIES
--------------------------------------------------------------------------------

default_name
 begin time read from input coords =  1994.000 ps

 Number of triangulated 3-point waters found:    38741

     Sum of charges from parm topology file =   0.00299762
     Forcing neutrality...

--------------------------------------------------------------------------------
   4.  RESULTS
 NSTEP =     1000   TIME(PS) =    1995.000  TEMP(K) =   295.95  PRESS =     0.0
 Etot   =   -339536.8910  EKtot   =     77888.8828  EPtot      =   -417425.7739
 BOND   =      2048.2759  ANGLE   =      5675.1919  DIHED      =      9188.1674
 1-4 NB =      3609.2070  1-4 EEL =     32199.9127  VDWAALS    =     50894.3490
 EELEC  =   -524266.5887  EHBOND  =         0.0000  RESTRAINT  =      3225.7110
 EAMBER (non-restraint)  =   -420651.4848
 EKCMT  =         0.0000  VIRIAL  =         0.0000  VOLUME     =   1298976.6959
                                                    Density    =         1.0183
 ------------------------------------------------------------------------------

      A V E R A G E S   O V E R    1000 S T E P S

 NSTEP =  1000000   TIME(PS) =    2994.000  TEMP(K) =   298.06  PRESS =     0.0
 Etot   =   -338941.3914  EKtot   =     78444.0267  EPtot      =   -417385.4182
 BOND   =      2099.2301  ANGLE   =      5827.9147  DIHED      =      9161.5931
 1-4 NB =      3618.8445  1-4 EEL =     32210.2696  VDWAALS    =     50977.6483
 EELEC  =   -524624.0299  EHBOND  =         0.0000  RESTRAINT  =      3343.1113
 EAMBER (non-restraint)  =   -420728.5294
 EKCMT  =         0.0000  VIRIAL  =         0.0000  VOLUME     =   1289538.3377
                                                    Density    =         1.0257
 ------------------------------------------------------------------------------

      R M S  F L U C T U A T I O N S

 NSTEP =  1000000   TIME(PS) =    2994.000  TEMP(K) =     0.85  PRESS =     0.0
 Etot   =       381.2092  EKtot   =       223.8626  EPtot      =       316.3854
 BOND   =        35.7433  ANGLE   =        52.6915  DIHED      =        26.7152
 1-4 NB =        19.7677  1-4 EEL =        45.4275  VDWAALS    =       317.0804
 EELEC  =       507.1139  EHBOND  =         0.0000  RESTRAINT  =        38.5197
 EAMBER (non-restraint)  =       277.8656
 EKCMT  =         0.0000  VIRIAL  =         0.0000  VOLUME     =      1869.0190
                                                    Density    =         0.0015
 ------------------------------------------------------------------------------
