-------------------------------------------------------
          Amber 20 PMEMD                              2020
          -------------------------------------------------------

  [-O]verwriting output

File Assignments:

 Here is the input file:

 &cntrl
  imin = 0, nstlim = 1000000, dt = 0.001,
  irest = 0, ntx = 1, ig = -1,
  tempi = 298.0, temp0 = 298.0,
  ntc = 2, ntf = 2, tol = 0.00001,
  ntwx = 10000, ntwe = 0, ntwr = 1000, ntpr = 1000,
  cut = 8.0, iwrap = 0,
  ntt =3, gamma_ln=1.0, ntb = 2, ntp = 1,
  nscm = 0, barostat = 2,
  ntr=1, restraintmask="@CA,N,C", restraint_wt=10.
  ioutfm=1, ntxo=2,
  /

Note: ig = -1. Setting random seed to   676296 based on wallclock time in
      microseconds.

--------------------------------------------------------------------------------
   1.  RESOURCE   USE:
--------------------------------------------------------------------------------

 getting box info from netcdf restart file
 NATOM  =  129112 NTYPES =      20 NBONH =  122455 MBONA  =    6524
 NTHETH =   14162 MTHETA =    8841 NPHIH =   27911 MPHIA  =   21881
 NHPARM =       0 NPARM  =       0 NNB   =  224841 NRES   =   39809
 NBONA  =    6524 NTHETA =    8841 NPHIA =   21881 NUMBND =      56
 NUMANG =     115 NPTRA  =      53 NATYP =      42 NPHB   =       0
 IFBOX  =       2 NMXRS  =      62 IFCAP =       0 NEXTRA =       0
 NCOPY  =       0

     BOX TYPE: TRUNCATED OCTAHEDRON

--------------------------------------------------------------------------------
   2.  CONTROL  DATA  FOR  THE  RUN
--------------------------------------------------------------------------------

default_name

General flags:
     imin    =       0, nmropt  =       0

Nature and format of input:
     ntx     =       1, irest   =       0, ntrx    =       1

Nature and format of output:
     ntxo    =       2, ntpr    =    1000, ntrx    =       1, ntwr    =    1000
     iwrap   =       0, ntwx    =   10000, ntwv    =       0, ntwe    =       0
     ioutfm  =       1, ntwprt  =       0, idecomp =       0, rbornstat=      0

Potential function:
     ntf     =       2, ntb     =       2, igb     =       0, nsnb    =      25
     ipol    =       0, gbsa    =       0, iesp    =       0
     dielc   =   1.00000, cut     =   8.00000, intdiel =   1.00000

Frozen or restrained atoms:
     ibelly  =       0, ntr     =       1
     restraint_wt =  10.00000

Molecular dynamics:
     nstlim  =   1000000, nscm    =         0, nrespa  =         1
     t       =   0.00000, dt      =   0.00100, vlimit  =  -1.00000

Langevin dynamics temperature regulation:
     ig      =  676296
     temp0   = 298.00000, tempi   = 298.00000, gamma_ln=   1.00000

Pressure regulation:
     ntp     =       1
     pres0   =   1.00000, comp    =  44.60000, taup    =   1.00000
     Monte-Carlo Barostat:
     mcbarint  =     100

SHAKE:
     ntc     =       2, jfastw  =       0
     tol     =   0.00001

Ewald parameters:
     verbose =       0, ew_type =       0, nbflag  =       1, use_pme =       1
     vdwmeth =       1, eedmeth =       1, netfrc  =       1
     Box X =  118.761   Box Y =  118.761   Box Z =  118.761
     Alpha =  109.471   Beta  =  109.471   Gamma =  109.471
     NFFT1 =  128       NFFT2 =  128       NFFT3 =  128
     Cutoff=    8.000   Tol   =0.100E-04
     Ewald Coefficient =  0.34864
     Interpolation order =    4

    LOADING THE CONSTRAINED ATOMS AS GROUPS

   5.  REFERENCE ATOM COORDINATES

  default_name
     Mask @CA,N,C; matches  2352 atoms

--------------------------------------------------------------------------------
   3.  ATOMIC COORDINATES AND VELOCITIES
--------------------------------------------------------------------------------

default_name
 begin time read from input coords =     0.000 ps

 Number of triangulated 3-point waters found:    38741

     Sum of charges from parm topology file =   0.00299762
     Forcing neutrality...

--------------------------------------------------------------------------------
   4.  RESULTS
 NSTEP =        0   TIME(PS) =       0.000  TEMP(K) =   434.88  PRESS =     0.0
 Etot   =   -326769.9010  EKtot   =    114455.0242  EPtot      =   -441224.9252
 BOND   =       398.3097  ANGLE   =      2257.0960  DIHED      =      8487.3079
 1-4 NB =      3307.0491  1-4 EEL =     32129.0687  VDWAALS    =     37876.3781
 EELEC  =   -525680.1348  EHBOND  =         0.0000  RESTRAINT  =         0.0000
 EKCMT  =         0.0000  VIRIAL  =         0.0000  VOLUME     =   1289438.8574
                                                    Density    =         1.0258
 ------------------------------------------------------------------------------

      A V E R A G E S   O V E R    1000 S T E P S

 NSTEP =  1000000   TIME(PS) =    1000.000  TEMP(K) =   297.97  PRESS =     0.0
 Etot   =   -344969.3877  EKtot   =     78422.3895  EPtot      =   -423391.7772
 BOND   =      2275.7560  ANGLE   =      6316.2073  DIHED      =      8907.2113
 1-4 NB =      3128.6624  1-4 EEL =     31883.8818  VDWAALS    =     49907.5681
 EELEC  =   -526494.9721  EHBOND  =         0.0000  RESTRAINT  =       683.9080
 EAMBER (non-restraint)  =   -424075.6852
 EKCMT  =         0.0000  VIRIAL  =         0.0000  VOLUME     =   1285769.9871
                                                    Density    =         1.0287
 ------------------------------------------------------------------------------

      R M S  F L U C T U A T I O N S

 NSTEP =  1000000   TIME(PS) =    1000.000  TEMP(K) =     0.91  PRESS =     0.0
 Etot   =       481.2347  EKtot   =       239.5097  EPtot      =       385.5474
 BOND   =        39.5693  ANGLE   =        69.4157  DIHED      =        39.9081
 1-4 NB =        22.8710  1-4 EEL =        86.9548  VDWAALS    =       319.9916
 EELEC  =       548.6117  EHBOND  =         0.0000  RESTRAINT  =        17.6626
 EAMBER (non-restraint)  =       367.8847
 EKCMT  =         0.0000  VIRIAL  =         0.0000  VOLUME     =      1614.6685
                                                    Density    =         0.0013
 ------------------------------------------------------------------------------
