-------------------------------------------------------
          Amber 22 SANDER                              2022
          -------------------------------------------------------

  [-O]verwriting output

File Assignments:

 Here is the input file:

Initial MD equilibration
 &cntrl
  imin=0, irest=0,
  nstlim=1000,dt=0.001, ntc=1,
  ntpr=20, ntwx=20,
  cut=16, ntb=0, igb=1,
  ntt=3, gamma_ln=1.0,
  tempi=0.0, temp0=300.0,
 &end

--------------------------------------------------------------------------------
   1.  RESOURCE   USE:
--------------------------------------------------------------------------------

 NATOM  =   12611 NTYPES =      17 NBONH =    6234 MBONA  =    6524
 NTHETH =   14166 MTHETA =    8841 NPHIH =   27921 MPHIA  =   21881
 NHPARM =       0 NPARM  =       0 NNB   =   69611 NRES   =     788
 NBONA  =    6524 NTHETA =    8841 NPHIA =   21881 NUMBND =      54
 NUMANG =     117 NPTRA  =      53 NATYP =      38 NPHB   =       0
 IFBOX  =       0 NMXRS  =      62 IFCAP =       0 NEXTRA =       0
 NCOPY  =       0

 Implicit solvent radii are modified Bondi radii (mbondi)

--------------------------------------------------------------------------------
   2.  CONTROL  DATA  FOR  THE  RUN
--------------------------------------------------------------------------------

default_name

General flags:
     imin    =       0, nmropt  =       0

Nature and format of input:
     ntx     =       1, irest   =       0, ntrx    =       1

Nature and format of output:
     ntxo    =       2, ntpr    =      20, ntrx    =       1, ntwr    =    1000
     iwrap   =       0, ntwx    =      20, ntwv    =       0, ntwe    =       0
     ioutfm  =       1, ntwprt  =       0, idecomp =       0, rbornstat=      0

Potential function:
     ntf     =       1, ntb     =       0, igb     =       1, nsnb    =      25
     ipol    =       0, gbsa    =       0, iesp    =       0
     dielc   =   1.00000, cut     =  16.00000, intdiel =   1.00000
     saltcon =   0.00000, offset  =   0.09000, gbalpha=    1.00000
     gbbeta  =   0.00000, gbgamma =   0.00000, surften =   0.00500
     rdt     =   0.00000, rgbmax  =  25.00000  extdiel =  78.50000
     alpb  =        0

Frozen or restrained atoms:
     ibelly  =       0, ntr     =       0

Molecular dynamics:
     nstlim  =      1000, nscm    =      1000, nrespa  =         1
     t       =   0.00000, dt      =   0.00100, vlimit  =  20.00000

Langevin dynamics temperature regulation:
     ig      =   71277
     temp0   = 300.00000, tempi   =   0.00000, gamma_ln=   1.00000

--------------------------------------------------------------------------------
   3.  ATOMIC COORDINATES AND VELOCITIES
--------------------------------------------------------------------------------

default_name
 begin time read from input coords =     0.000 ps

 Number of triangulated 3-point waters found:        0

--------------------------------------------------------------------------------
   4.  RESULTS
 NSTEP =        0   TIME(PS) =       0.000  TEMP(K) =     0.00  PRESS =     0.0
 Etot   =    -29724.6467  EKtot   =         0.0000  EPtot      =    -29724.6467
 BOND   =       458.7100  ANGLE   =      1799.9194  DIHED      =      7831.3056
 1-4 NB =      2752.7129  1-4 EEL =     31584.4170  VDWAALS    =     -6930.8838
 EELEC  =    -56464.7612  EGB     =    -10756.0666  RESTRAINT  =         0.0000
 ------------------------------------------------------------------------------

      A V E R A G E S   O V E R    1000 S T E P S

 NSTEP =     1000   TIME(PS) =       1.000  TEMP(K) =   123.75  PRESS =     0.0
 Etot   =    -21860.9296  EKtot   =      4651.6775  EPtot      =    -26512.6071
 BOND   =      1975.7629  ANGLE   =      3520.2765  DIHED      =      8090.6634
 1-4 NB =      2740.7961  1-4 EEL =     31262.0683  VDWAALS    =     -6876.9360
 EELEC  =    -56976.4112  EGB     =    -10248.8272  RESTRAINT  =         0.0000
 ------------------------------------------------------------------------------

      R M S  F L U C T U A T I O N S

 NSTEP =     1000   TIME(PS) =       1.000  TEMP(K) =    54.18  PRESS =     0.0
 Etot   =      3822.9070  EKtot   =      2036.6431  EPtot      =      1796.4865
 BOND   =       750.6273  ANGLE   =       867.0078  DIHED      =       131.5140
 1-4 NB =        23.2976  1-4 EEL =       174.2878  VDWAALS    =       175.5368
 EELEC  =       687.9073  EGB     =       676.4805  RESTRAINT  =         0.0000
 ------------------------------------------------------------------------------
