-------------------------------------------------------
          Amber 22 SANDER                              2022
          -------------------------------------------------------

  [-O]verwriting output

File Assignments:

 Here is the input file:

Initial MD equilibration
 &cntrl
  imin=0, irest=0,
  nstlim=1000,dt=0.001, ntc=1,
  ntpr=20, ntwx=20,
  cut=16, ntb=0, igb=1,
  ntt=3, gamma_ln=1.0,
  tempi=0.0, temp0=300.0,
 &end

--------------------------------------------------------------------------------
   1.  RESOURCE   USE:
--------------------------------------------------------------------------------

 NATOM  =   12654 NTYPES =      18 NBONH =    6259 MBONA  =    6542
 NTHETH =   14217 MTHETA =    8867 NPHIH =   28032 MPHIA  =   21951
 NHPARM =       0 NPARM  =       0 NNB   =   69858 NRES   =     791
 NBONA  =    6542 NTHETA =    8867 NPHIA =   21951 NUMBND =      57
 NUMANG =     122 NPTRA  =      54 NATYP =      41 NPHB   =       0
 IFBOX  =       0 NMXRS  =      65 IFCAP =       0 NEXTRA =       0
 NCOPY  =       0

 Implicit solvent radii are modified Bondi radii (mbondi)

--------------------------------------------------------------------------------
   2.  CONTROL  DATA  FOR  THE  RUN
--------------------------------------------------------------------------------

default_name

General flags:
     imin    =       0, nmropt  =       0

Nature and format of input:
     ntx     =       1, irest   =       0, ntrx    =       1

Nature and format of output:
     ntxo    =       2, ntpr    =      20, ntrx    =       1, ntwr    =    1000
     iwrap   =       0, ntwx    =      20, ntwv    =       0, ntwe    =       0
     ioutfm  =       1, ntwprt  =       0, idecomp =       0, rbornstat=      0

Potential function:
     ntf     =       1, ntb     =       0, igb     =       1, nsnb    =      25
     ipol    =       0, gbsa    =       0, iesp    =       0
     dielc   =   1.00000, cut     =  16.00000, intdiel =   1.00000
     saltcon =   0.00000, offset  =   0.09000, gbalpha=    1.00000
     gbbeta  =   0.00000, gbgamma =   0.00000, surften =   0.00500
     rdt     =   0.00000, rgbmax  =  25.00000  extdiel =  78.50000
     alpb  =        0

Frozen or restrained atoms:
     ibelly  =       0, ntr     =       0

Molecular dynamics:
     nstlim  =      1000, nscm    =      1000, nrespa  =         1
     t       =   0.00000, dt      =   0.00100, vlimit  =  20.00000

Langevin dynamics temperature regulation:
     ig      =   71277
     temp0   = 300.00000, tempi   =   0.00000, gamma_ln=   1.00000

--------------------------------------------------------------------------------
   3.  ATOMIC COORDINATES AND VELOCITIES
--------------------------------------------------------------------------------

default_name
 begin time read from input coords =     0.000 ps

 Number of triangulated 3-point waters found:        0

--------------------------------------------------------------------------------
   4.  RESULTS
 NSTEP =        0   TIME(PS) =       0.000  TEMP(K) =     0.00  PRESS =     0.0
 Etot   =    -31071.6963  EKtot   =         0.0000  EPtot      =    -31071.6963
 BOND   =       456.8886  ANGLE   =      1614.1947  DIHED      =      7613.4667
 1-4 NB =      2684.4335  1-4 EEL =     31238.9143  VDWAALS    =     -7392.6194
 EELEC  =    -56021.1019  EGB     =    -11265.8727  RESTRAINT  =         0.0000
 ------------------------------------------------------------------------------

      A V E R A G E S   O V E R    1000 S T E P S

 NSTEP =     1000   TIME(PS) =       1.000  TEMP(K) =*********  PRESS =     0.0
 Etot   =            NaN  EKtot   =  50648942.6621  EPtot      =            NaN
 BOND   = 378532408.6346  ANGLE   =    533604.3135  DIHED      =     23390.1050
 1-4 NB = **************  1-4 EEL =     17401.7503  VDWAALS    = **************
 EELEC  =    -36908.2244  EGB     =            NaN  RESTRAINT  =         0.0000
 ------------------------------------------------------------------------------

      R M S  F L U C T U A T I O N S

 NSTEP =     1000   TIME(PS) =       1.000  TEMP(K) =258244.01  PRESS =     0.0
 Etot   =            NaN  EKtot   =   9740676.3164  EPtot      =            NaN
 BOND   =  96771489.5316  ANGLE   =    125047.8042  DIHED      =      3374.0168
 1-4 NB = **************  1-4 EEL =      4558.4196  VDWAALS    = **************
 EELEC  =      6106.4434  EGB     =            NaN  RESTRAINT  =         0.0000
 ------------------------------------------------------------------------------
