-------------------------------------------------------
          Amber 22 SANDER                              2022
          -------------------------------------------------------

  [-O]verwriting output

File Assignments:

 Here is the input file:

Initial MD equilibration
 &cntrl
  imin=0, irest=0,
  nstlim=1000,dt=0.001, ntc=1,
  ntpr=20, ntwx=20,
  cut=16, ntb=0, igb=1,
  ntt=3, gamma_ln=1.0,
  tempi=0.0, temp0=300.0,
 &end

--------------------------------------------------------------------------------
   1.  RESOURCE   USE:
--------------------------------------------------------------------------------

 NATOM  =      53 NTYPES =       4 NBONH =      33 MBONA  =      21
 NTHETH =      75 MTHETA =      30 NPHIH =     145 MPHIA  =      68
 NHPARM =       0 NPARM  =       0 NNB   =     317 NRES   =       1
 NBONA  =      21 NTHETA =      30 NPHIA =      68 NUMBND =       5
 NUMANG =       9 NPTRA  =      12 NATYP =       4 NPHB   =       0
 IFBOX  =       0 NMXRS  =      53 IFCAP =       0 NEXTRA =       0
 NCOPY  =       0

 Implicit solvent radii are modified Bondi radii (mbondi)

--------------------------------------------------------------------------------
   2.  CONTROL  DATA  FOR  THE  RUN
--------------------------------------------------------------------------------

VRT

General flags:
     imin    =       0, nmropt  =       0

Nature and format of input:
     ntx     =       1, irest   =       0, ntrx    =       1

Nature and format of output:
     ntxo    =       2, ntpr    =      20, ntrx    =       1, ntwr    =    1000
     iwrap   =       0, ntwx    =      20, ntwv    =       0, ntwe    =       0
     ioutfm  =       1, ntwprt  =       0, idecomp =       0, rbornstat=      0

Potential function:
     ntf     =       1, ntb     =       0, igb     =       1, nsnb    =      25
     ipol    =       0, gbsa    =       0, iesp    =       0
     dielc   =   1.00000, cut     =  16.00000, intdiel =   1.00000
     saltcon =   0.00000, offset  =   0.09000, gbalpha=    1.00000
     gbbeta  =   0.00000, gbgamma =   0.00000, surften =   0.00500
     rdt     =   0.00000, rgbmax  =  25.00000  extdiel =  78.50000
     alpb  =        0

Frozen or restrained atoms:
     ibelly  =       0, ntr     =       0

Molecular dynamics:
     nstlim  =      1000, nscm    =      1000, nrespa  =         1
     t       =   0.00000, dt      =   0.00100, vlimit  =  20.00000

Langevin dynamics temperature regulation:
     ig      =   71277
     temp0   = 300.00000, tempi   =   0.00000, gamma_ln=   1.00000

--------------------------------------------------------------------------------
   3.  ATOMIC COORDINATES AND VELOCITIES
--------------------------------------------------------------------------------

VRT
 begin time read from input coords =     0.000 ps

 Number of triangulated 3-point waters found:        0

--------------------------------------------------------------------------------
   4.  RESULTS
 NSTEP =        0   TIME(PS) =       0.000  TEMP(K) =     0.00  PRESS =     0.0
 Etot   =         3.5745  EKtot   =         0.0000  EPtot      =         3.5745
 BOND   =         2.9682  ANGLE   =        13.6954  DIHED      =        36.1664
 1-4 NB =         8.7526  1-4 EEL =       -78.7287  VDWAALS    =        -1.2636
 EELEC  =        62.7469  EGB     =       -40.7628  RESTRAINT  =         0.0000
 ------------------------------------------------------------------------------

      A V E R A G E S   O V E R    1000 S T E P S

 NSTEP =     1000   TIME(PS) =       1.000  TEMP(K) =   121.30  PRESS =     0.0
 Etot   =        38.8220  EKtot   =        19.1630  EPtot      =        19.6590
 BOND   =         9.5881  ANGLE   =        21.8248  DIHED      =        36.6873
 1-4 NB =         9.0528  1-4 EEL =       -78.2193  VDWAALS    =        -0.4912
 EELEC  =        62.0134  EGB     =       -40.7968  RESTRAINT  =         0.0000
 ------------------------------------------------------------------------------

      R M S  F L U C T U A T I O N S

 NSTEP =     1000   TIME(PS) =       1.000  TEMP(K) =    58.65  PRESS =     0.0
 Etot   =        17.7520  EKtot   =         9.2663  EPtot      =         8.7774
 BOND   =         3.6757  ANGLE   =         4.5186  DIHED      =         1.0474
 1-4 NB =         0.7069  1-4 EEL =         0.6065  VDWAALS    =         1.6828
 EELEC  =         0.7402  EGB     =         0.2699  RESTRAINT  =         0.0000
 ------------------------------------------------------------------------------
